
Circuit: **************************************************************

Doing analysis at TEMP = 27.000000 and TNOM = 27.000000


Initial Transient Solution
--------------------------

Node                                   Voltage
----                                   -------
vcc                                         15
3                                            0
4                                    -0.666765
5                                     -14.3269
vee                                        -15
vi#branch                          -1.4008e-05
vee#branch                          0.00621799
vcc#branch                         -0.00267185


No. of Data Rows : 337

                     **************************************************************
                     Transient Analysis  Sun Nov 27 17:40:52  2011
--------------------------------------------------------------------------------------------------------
Index   time            v(4)            
--------------------------------------------------------------------------------------------------------
0	0.000000e+00	-6.66765e-01	
1	1.000000e-07	-6.60553e-01	
2	2.000000e-07	-6.54335e-01	
3	4.000000e-07	-6.41897e-01	
4	8.000000e-07	-6.17020e-01	
5	1.600000e-06	-5.67261e-01	
6	3.200000e-06	-4.67725e-01	
7	6.400000e-06	-2.68629e-01	
8	1.280000e-05	1.293280e-01	
9	2.280000e-05	7.489943e-01	
10	3.280000e-05	1.363690e+00	
11	4.280000e-05	1.970814e+00	
12	5.280000e-05	2.567850e+00	
13	6.280000e-05	3.152358e+00	
14	7.280000e-05	3.721970e+00	
15	8.280000e-05	4.274391e+00	
16	9.280000e-05	4.807403e+00	
17	1.028000e-04	5.318871e+00	
18	1.128000e-04	5.806752e+00	
19	1.228000e-04	6.269101e+00	
20	1.328000e-04	6.704075e+00	
21	1.428000e-04	7.109943e+00	
22	1.528000e-04	7.485092e+00	
23	1.628000e-04	7.828031e+00	
24	1.728000e-04	8.137397e+00	
25	1.828000e-04	8.411962e+00	
26	1.928000e-04	8.650637e+00	
27	2.028000e-04	8.852474e+00	
28	2.128000e-04	9.016673e+00	
29	2.228000e-04	9.142582e+00	
30	2.328000e-04	9.229702e+00	
31	2.428000e-04	9.277689e+00	
32	2.528000e-04	9.286350e+00	
33	2.628000e-04	9.255653e+00	
34	2.728000e-04	9.185719e+00	
35	2.828000e-04	9.076825e+00	
36	2.928000e-04	8.929402e+00	
37	3.028000e-04	8.744036e+00	
38	3.128000e-04	8.521463e+00	
39	3.228000e-04	8.262564e+00	
40	3.328000e-04	7.968367e+00	
41	3.428000e-04	7.640041e+00	
42	3.528000e-04	7.278889e+00	
43	3.628000e-04	6.886346e+00	
44	3.728000e-04	6.463972e+00	
45	3.828000e-04	6.013448e+00	
46	3.928000e-04	5.536568e+00	
47	4.028000e-04	5.035232e+00	
48	4.128000e-04	4.511443e+00	
49	4.228000e-04	3.967294e+00	
50	4.328000e-04	3.404968e+00	
51	4.428000e-04	2.826728e+00	
52	4.528000e-04	2.234909e+00	
53	4.628000e-04	1.631922e+00	
54	4.728000e-04	1.020245e+00	
55	4.828000e-04	4.024343e-01	
56	4.928000e-04	-2.18857e-01	
57	5.028000e-04	-8.40825e-01	
58	5.128000e-04	-1.46038e+00	
59	5.228000e-04	-2.07371e+00	
60	5.328000e-04	-2.67356e+00	
61	5.428000e-04	-3.21427e+00	
62	5.463944e-04	-3.25644e+00	
63	5.489368e-04	-3.25411e+00	
64	5.509540e-04	-3.25604e+00	
65	5.529575e-04	-3.25403e+00	
66	5.552902e-04	-3.25576e+00	
67	5.584627e-04	-3.25394e+00	
68	5.617422e-04	-3.25555e+00	
69	5.683010e-04	-3.25379e+00	
70	5.755611e-04	-3.25532e+00	
71	5.855611e-04	-3.25363e+00	
72	5.955611e-04	-3.25514e+00	
73	6.055611e-04	-3.25351e+00	
74	6.155611e-04	-3.25501e+00	
75	6.255611e-04	-3.25342e+00	
76	6.355611e-04	-3.25491e+00	
77	6.455611e-04	-3.25334e+00	
78	6.555611e-04	-3.25481e+00	
79	6.655611e-04	-3.25327e+00	
80	6.755611e-04	-3.25472e+00	
81	6.855611e-04	-3.25321e+00	
82	6.955611e-04	-3.25464e+00	
83	7.055611e-04	-3.25315e+00	
84	7.155611e-04	-3.25455e+00	
85	7.255611e-04	-3.25308e+00	
86	7.355611e-04	-3.25447e+00	
87	7.455611e-04	-3.25302e+00	
88	7.555611e-04	-3.25439e+00	
89	7.655611e-04	-3.25296e+00	
90	7.755611e-04	-3.25431e+00	
91	7.855611e-04	-3.25290e+00	
92	7.955611e-04	-3.25423e+00	
93	8.055611e-04	-3.25284e+00	
94	8.155611e-04	-3.25415e+00	
95	8.255611e-04	-3.25278e+00	
96	8.355611e-04	-3.25406e+00	
97	8.455611e-04	-3.25271e+00	
98	8.555611e-04	-3.25397e+00	
99	8.655611e-04	-3.25264e+00	
100	8.755611e-04	-3.25387e+00	
101	8.855611e-04	-3.25255e+00	
102	8.955611e-04	-3.25376e+00	
103	9.055611e-04	-3.25244e+00	
104	9.155611e-04	-3.25361e+00	
105	9.255611e-04	-3.25228e+00	
106	9.355611e-04	-3.25337e+00	
107	9.455611e-04	-3.25194e+00	
108	9.531646e-04	-3.25272e+00	
109	9.569265e-04	-3.22283e+00	
110	9.589337e-04	-3.13748e+00	
111	9.615566e-04	-2.99790e+00	
112	9.641704e-04	-2.85016e+00	
113	9.673791e-04	-2.66299e+00	
114	9.737966e-04	-2.27984e+00	
115	9.822035e-04	-1.76782e+00	
116	9.922035e-04	-1.15116e+00	
117	1.002204e-03	-5.29869e-01	
118	1.012204e-03	9.223677e-02	
119	1.022204e-03	7.121379e-01	
120	1.032204e-03	1.327218e+00	
121	1.042204e-03	1.934854e+00	
122	1.052204e-03	2.532572e+00	
123	1.062204e-03	3.117882e+00	
124	1.072204e-03	3.688462e+00	
125	1.082204e-03	4.241956e+00	
126	1.092204e-03	4.776201e+00	
127	1.102204e-03	5.288997e+00	
128	1.112204e-03	5.778357e+00	
129	1.122204e-03	6.242264e+00	
130	1.132204e-03	6.678938e+00	
131	1.142204e-03	7.086572e+00	
132	1.152204e-03	7.463614e+00	
133	1.162204e-03	7.808495e+00	
134	1.172204e-03	8.119917e+00	
135	1.182204e-03	8.396572e+00	
136	1.192204e-03	8.637434e+00	
137	1.202204e-03	8.841474e+00	
138	1.212204e-03	9.007956e+00	
139	1.222204e-03	9.136146e+00	
140	1.232204e-03	9.225610e+00	
141	1.242204e-03	9.275919e+00	
142	1.252204e-03	9.286947e+00	
143	1.262204e-03	9.258577e+00	
144	1.272204e-03	9.190996e+00	
145	1.282204e-03	9.084396e+00	
146	1.292204e-03	8.939275e+00	
147	1.302204e-03	8.756135e+00	
148	1.312204e-03	8.535776e+00	
149	1.322204e-03	8.278998e+00	
150	1.332204e-03	7.986894e+00	
151	1.342204e-03	7.660550e+00	
152	1.352204e-03	7.301334e+00	
153	1.362204e-03	6.910604e+00	
154	1.372204e-03	6.489980e+00	
155	1.382204e-03	6.041070e+00	
156	1.392204e-03	5.565726e+00	
157	1.402204e-03	5.065778e+00	
158	1.412204e-03	4.543285e+00	
159	1.422204e-03	4.000276e+00	
160	1.432204e-03	3.438985e+00	
161	1.442204e-03	2.861616e+00	
162	1.452204e-03	2.270553e+00	
163	1.462204e-03	1.668152e+00	
164	1.472204e-03	1.056932e+00	
165	1.482204e-03	4.394063e-01	
166	1.492204e-03	-1.81749e-01	
167	1.502204e-03	-8.03761e-01	
168	1.512204e-03	-1.42356e+00	
169	1.522204e-03	-2.03738e+00	
170	1.532204e-03	-2.63844e+00	
171	1.542204e-03	-3.18998e+00	
172	1.546120e-03	-3.25747e+00	
173	1.549995e-03	-3.25300e+00	
174	1.552493e-03	-3.25698e+00	
175	1.554762e-03	-3.25301e+00	
176	1.557703e-03	-3.25663e+00	
177	1.561052e-03	-3.25297e+00	
178	1.564663e-03	-3.25638e+00	
179	1.571301e-03	-3.25288e+00	
180	1.578175e-03	-3.25615e+00	
181	1.588175e-03	-3.25276e+00	
182	1.598175e-03	-3.25597e+00	
183	1.608175e-03	-3.25266e+00	
184	1.618175e-03	-3.25583e+00	
185	1.628175e-03	-3.25258e+00	
186	1.638175e-03	-3.25571e+00	
187	1.648175e-03	-3.25252e+00	
188	1.658175e-03	-3.25560e+00	
189	1.668175e-03	-3.25246e+00	
190	1.678175e-03	-3.25550e+00	
191	1.688175e-03	-3.25241e+00	
192	1.698175e-03	-3.25541e+00	
193	1.708175e-03	-3.25236e+00	
194	1.718175e-03	-3.25531e+00	
195	1.728175e-03	-3.25231e+00	
196	1.738175e-03	-3.25522e+00	
197	1.748175e-03	-3.25226e+00	
198	1.758175e-03	-3.25513e+00	
199	1.768175e-03	-3.25221e+00	
200	1.778175e-03	-3.25504e+00	
201	1.788175e-03	-3.25216e+00	
202	1.798175e-03	-3.25495e+00	
203	1.808175e-03	-3.25211e+00	
204	1.818175e-03	-3.25485e+00	
205	1.828175e-03	-3.25206e+00	
206	1.838175e-03	-3.25475e+00	
207	1.848175e-03	-3.25200e+00	
208	1.858175e-03	-3.25465e+00	
209	1.868175e-03	-3.25194e+00	
210	1.878175e-03	-3.25454e+00	
211	1.888175e-03	-3.25186e+00	
212	1.898175e-03	-3.25441e+00	
213	1.908175e-03	-3.25176e+00	
214	1.918175e-03	-3.25424e+00	
215	1.928175e-03	-3.25160e+00	
216	1.938175e-03	-3.25397e+00	
217	1.948175e-03	-3.25121e+00	
218	1.958175e-03	-3.17355e+00	
219	1.961084e-03	-3.02403e+00	
220	1.965071e-03	-2.79800e+00	
221	1.968882e-03	-2.57415e+00	
222	1.974889e-03	-2.21375e+00	
223	1.984889e-03	-1.60277e+00	
224	1.994889e-03	-9.84549e-01	
225	2.004889e-03	-3.62724e-01	
226	2.014889e-03	2.590641e-01	
227	2.024889e-03	8.779266e-01	
228	2.034889e-03	1.491260e+00	
229	2.044889e-03	2.096476e+00	
230	2.054889e-03	2.691098e+00	
231	2.064889e-03	3.272682e+00	
232	2.074889e-03	3.838894e+00	
233	2.084889e-03	4.387435e+00	
234	2.094889e-03	4.916124e+00	
235	2.104889e-03	5.422824e+00	
236	2.114889e-03	5.905533e+00	
237	2.124889e-03	6.362306e+00	
238	2.134889e-03	6.791342e+00	
239	2.144889e-03	7.190917e+00	
240	2.154889e-03	7.559459e+00	
241	2.164889e-03	7.895487e+00	
242	2.174889e-03	8.197682e+00	
243	2.184889e-03	8.464829e+00	
244	2.194889e-03	8.695885e+00	
245	2.204889e-03	8.889915e+00	
246	2.214889e-03	9.046166e+00	
247	2.224889e-03	9.164003e+00	
248	2.234889e-03	9.242974e+00	
249	2.244889e-03	9.282750e+00	
250	2.254889e-03	9.283190e+00	
251	2.264889e-03	9.244274e+00	
252	2.274889e-03	9.166176e+00	
253	2.284889e-03	9.049186e+00	
254	2.294889e-03	8.893787e+00	
255	2.304889e-03	8.700576e+00	
256	2.314889e-03	8.470339e+00	
257	2.324889e-03	8.203971e+00	
258	2.334889e-03	7.902546e+00	
259	2.344889e-03	7.567245e+00	
260	2.354889e-03	7.199415e+00	
261	2.364889e-03	6.800502e+00	
262	2.374889e-03	6.372108e+00	
263	2.384889e-03	5.915920e+00	
264	2.394889e-03	5.433774e+00	
265	2.404889e-03	4.927574e+00	
266	2.414889e-03	4.399359e+00	
267	2.424889e-03	3.851225e+00	
268	2.434889e-03	3.285389e+00	
269	2.444889e-03	2.704111e+00	
270	2.454889e-03	2.109762e+00	
271	2.464889e-03	1.504747e+00	
272	2.474889e-03	8.915791e-01	
273	2.484889e-03	2.728129e-01	
274	2.494889e-03	-3.48852e-01	
275	2.504889e-03	-9.70592e-01	
276	2.514889e-03	-1.58919e+00	
277	2.524889e-03	-2.20060e+00	
278	2.534889e-03	-2.79573e+00	
279	2.540591e-03	-3.11319e+00	
280	2.544098e-03	-3.24766e+00	
281	2.547091e-03	-3.25612e+00	
282	2.548474e-03	-3.25446e+00	
283	2.550304e-03	-3.25577e+00	
284	2.552301e-03	-3.25435e+00	
285	2.554101e-03	-3.25552e+00	
286	2.557069e-03	-3.25425e+00	
287	2.559947e-03	-3.25531e+00	
288	2.565705e-03	-3.25410e+00	
289	2.572621e-03	-3.25509e+00	
290	2.582621e-03	-3.25392e+00	
291	2.592621e-03	-3.25490e+00	
292	2.602621e-03	-3.25378e+00	
293	2.612621e-03	-3.25477e+00	
294	2.622621e-03	-3.25368e+00	
295	2.632621e-03	-3.25467e+00	
296	2.642621e-03	-3.25360e+00	
297	2.652621e-03	-3.25457e+00	
298	2.662621e-03	-3.25353e+00	
299	2.672621e-03	-3.25449e+00	
300	2.682621e-03	-3.25346e+00	
301	2.692621e-03	-3.25440e+00	
302	2.702621e-03	-3.25340e+00	
303	2.712621e-03	-3.25433e+00	
304	2.722621e-03	-3.25333e+00	
305	2.732621e-03	-3.25425e+00	
306	2.742621e-03	-3.25327e+00	
307	2.752621e-03	-3.25417e+00	
308	2.762621e-03	-3.25321e+00	
309	2.772621e-03	-3.25409e+00	
310	2.782621e-03	-3.25314e+00	
311	2.792621e-03	-3.25401e+00	
312	2.802621e-03	-3.25308e+00	
313	2.812621e-03	-3.25393e+00	
314	2.822621e-03	-3.25301e+00	
315	2.832621e-03	-3.25385e+00	
316	2.842621e-03	-3.25294e+00	
317	2.852621e-03	-3.25377e+00	
318	2.862621e-03	-3.25286e+00	
319	2.872621e-03	-3.25367e+00	
320	2.882621e-03	-3.25278e+00	
321	2.892621e-03	-3.25356e+00	
322	2.902621e-03	-3.25267e+00	
323	2.912621e-03	-3.25342e+00	
324	2.922621e-03	-3.25252e+00	
325	2.932621e-03	-3.25321e+00	
326	2.942621e-03	-3.25222e+00	
327	2.950947e-03	-3.25270e+00	
328	2.957619e-03	-3.19736e+00	
329	2.960028e-03	-3.08115e+00	
330	2.963300e-03	-2.89982e+00	
331	2.966473e-03	-2.71637e+00	
332	2.970912e-03	-2.45315e+00	
333	2.979790e-03	-1.91564e+00	
334	2.989790e-03	-1.30030e+00	
335	2.999790e-03	-6.79949e-01	
336	3.000000e-03	-6.66767e-01	

CPU time since last call: 0.032 seconds.

Total CPU time: 0.032 seconds.

Total DRAM available = 2895.195312 MB.
DRAM currently available = 28.625000 MB.
Total ngspice program size = 5.631836 MB.
Resident set size = 712.000 kB.
Shared ngspice pages = 557.000 kB.
Text (code) pages = 1.488281 MB.
Stack = 0 bytes.
Library pages = 3.033203 MB.

